/*--------------------------------*- C++ -*----------------------------------*\
| =========                 |                                                 |
| \\      /  F ield         | OpenFOAM: The Open Source CFD Toolbox           |
|  \\    /   O peration     | Version:  v2406                                 |
|   \\  /    A nd           | Website:  www.openfoam.com                      |
|    \\/     M anipulation  |                                                 |
\*---------------------------------------------------------------------------*/
FoamFile
{
    version     2.0;
    format      ascii;
    class       volScalarField;
    object      TRearranged;
}
// * * * * * * * * * * * * * * * * * * * * * * * * * * * * * * * * * * * * * //

dimensions      [0 0 0 1 0 0 0];

internalField  uniform 0;;

boundaryField
{
    floor
    {
        type            calculated;
        value           $internalField;
    }

    ceiling
    {
        type            calculated;
        value           $internalField;
    }

    fixedWalls
    {
        type            calculated;
        value           $internalField;
    }

}


// ************************************************************************* //
