/*--------------------------------*- C++ -*----------------------------------*\
| =========                 |                                                 |
| \\      /  F ield         | OpenFOAM: The Open Source CFD Toolbox           |
|  \\    /   O peration     | Version:  v2406                                 |
|   \\  /    A nd           | Website:  www.openfoam.com                      |
|    \\/     M anipulation  |                                                 |
\*---------------------------------------------------------------------------*/
FoamFile
{
    version     2.0;
    format      ascii;
    class       dictionary;
    object      fvSolution;
}
// * * * * * * * * * * * * * * * * * * * * * * * * * * * * * * * * * * * * * //

solvers
{
    p_rgh
    {
        solver          PCG;
        preconditioner  DIC;
        tolerance       1e-15;
        relTol          0.1;
    }

    "(U|T|k|epsilon|Tvar|R)"
    {
        solver          PBiCGStab;
        preconditioner  DILU;
        tolerance       1e-30;
        relTol          0.0;
    }
}

SIMPLE
{
    nNonOrthogonalCorrectors 0;
    pRefCell        0;
    pRefValue       0;

    residualControl
    {
        p_rgh           1e-5;
        U               1e-4;
        T               1e-10;

        // possibly check turbulence fields
        "(k|epsilon|omega)" 1e-10;
    }
}

relaxationFactors
{
    fields
    {
        p_rgh           0.2;
    }
    equations
    {
        U               0.3;
        T               0.7;
        "(k|epsilon|Tvar|R)" 0.5;
    }
}


// ************************************************************************* //
